@<TRIPOS>MOLECULE
LIG
35 38 1 0 0 
SMALL
USER_CHARGES


@<TRIPOS>ATOM
  1 C       -2.1224    -0.1516     1.0658 C.ar  1 <1>  -0.0665 
  2 C       -3.2225    -0.8711     0.5181 C.ar  1 <1>   0.0014 
  3 CL      -4.7007    -0.1050     0.0040 Cl    1 <1>  -0.0623 
  4 C       -3.1443    -2.2728     0.4009 C.ar  1 <1>   0.0334 
  5 CL      -4.4729    -3.1872    -0.2494 Cl    1 <1>  -0.1004 
  6 C       -2.0341    -2.9340     0.9465 C.ar  1 <1>  -0.0381 
  7 CL      -2.0462    -4.6633     1.1247 Cl    1 <1>  -0.0943 
  8 C       -0.9134    -2.1824     1.3483 C.ar  1 <1>   0.0643 
  9 CL       0.2283    -2.9634     2.4149 Cl    1 <1>  -0.0501 
 10 C       -0.8375    -0.7919     1.0413 C.ar  1 <1>  -0.0540 
 11 C        0.4532    -0.0674     0.8545 C.2   1 <1>   0.2477 
 12 C        1.7539    -0.7357     0.8461 C.ar  1 <1>  -0.2669 
 13 C        1.9611    -2.0089     0.2688 C.ar  1 <1>   0.0419 
 14 H        1.1408    -2.5574    -0.1667 H     1 <1>   0.1493 
 15 C        3.2395    -2.5904     0.2302 C.ar  1 <1>  -0.1160 
 16 I        3.4217    -4.5070    -0.5759 I     1 <1>  -0.2020 
 17 C        4.3602    -1.8848     0.7130 C.ar  1 <1>   0.6122 
 18 O        5.6020    -2.4593     0.6881 O.3   1 <1>  -0.6676 
 19 C        4.1856    -0.5669     1.1869 C.ar  1 <1>  -0.1584 
 20 I        5.8399     0.5453     1.8366 I     1 <1>  -0.1730 
 21 C        2.8955     0.0097     1.2116 C.ar  1 <1>   0.2510 
 22 O        2.7209     1.3151     1.5744 O.3   1 <1>  -0.2283 
 23 C        1.7852     1.9395     0.7851 C.2   1 <1>   0.2500 
 24 C        1.9612     3.2542     0.4726 C.2   1 <1>  -0.1907 
 25 I        3.7746     4.2866     1.0618 I     1 <1>  -0.1599 
 26 C        0.9308     3.9887    -0.2443 C.2   1 <1>   0.6100 
 27 O        1.0660     5.1762    -0.5422 O.2   1 <1>  -0.6270 
 28 C       -0.2635     3.2463    -0.6136 C.2   1 <1>  -0.1483 
 29 I       -1.8200     4.1641    -1.7745 I     1 <1>  -0.1889 
 30 C       -0.4120     1.9471    -0.2610 C.2   1 <1>   0.0419 
 31 H       -1.2701     1.4312    -0.6578 H     1 <1>   0.1493 
 32 C        0.5708     1.2584     0.4896 C.2   1 <1>  -0.2551 
 33 C       -2.3123     1.0926     1.7629 C.2   1 <1>   0.9261 
 34 O       -3.4763     1.8013     1.7629 O.co2 1 <1>  -0.7656 
 35 O       -1.4114     1.5484     2.4631 O.co2 1 <1>  -0.7656 
@<TRIPOS>BOND
  1   1   2  ar  
  2   1  10  ar  
  3   1  33  1   
  4   2   3  1   
  5   2   4  ar  
  6   4   5  1   
  7   4   6  ar  
  8   6   7  1   
  9   6   8  ar  
 10   8   9  1   
 11   8  10  ar  
 12  10  11  1   
 13  11  12  1   
 14  11  32  2   
 15  12  13  ar  
 16  12  21  ar  
 17  13  14  1   
 18  13  15  ar  
 19  15  16  1   
 20  15  17  ar  
 21  17  18  1   
 22  17  19  ar  
 23  19  20  1   
 24  19  21  ar  
 25  21  22  1   
 26  22  23  1   
 27  23  24  2   
 28  23  32  1   
 29  24  25  1   
 30  24  26  1   
 31  26  27  2   
 32  26  28  1   
 33  28  29  1   
 34  28  30  2   
 35  30  31  1   
 36  30  32  1   
 37  33  34  ar  
 38  33  35  ar  
@<TRIPOS>SUBSTRUCTURE
  1 ****  11 GROUP 4 **** **** 0

# MOE 2020.09 (io_trps.svl 2020.01)
